@<TRIPOS>COMMENT
 LIGANDBOX_ID = HTS1610-02175024-01
 SOURCE = Namiki1610
 SOURCE_ID = NS-012630376-0001
 MOLECULAR_FORMULA = C66H42N18O18S12
 MOLECULAR_WEIGHT = 1759.950
 MOLECULAR_CHARGE = -6
 NUM_OF_DONOR = 6
 NUM_OF_ACCEPTOR = 30
 HOMO = -7.2229
 LUMO = -6.2451
 NUM_OF_CHIRAL_ATOMS = 0
 LOGS = ?
 LOGP = -0.2098
 NOTE = 

@<TRIPOS>MOLECULE
HTS1610-02175024-01
 156 168 0 0 0
SMALL
USER_CHARGES

@<TRIPOS>ATOM
     1 S1          -0.7228    -0.0036    -1.1456 S.O2      1  LGD         2.5798
     2 S2           3.9191    10.2149    -7.9730 S.O2      1  LGD         2.5792
     3 S3           1.8203    15.9620    -3.6468 S.O2      1  LGD         2.5792
     4 S4          -9.7720    12.7352    -3.1923 S.O2      1  LGD         2.5792
     5 S5          -2.0216    11.6157     8.0303 S.O2      1  LGD         2.5792
     6 S6           2.1770     5.5887     3.5775 S.O2      1  LGD         2.5792
     7 C1          -2.8641    10.3240    -2.7157 C.ar      1  LGD        -0.0418
     8 C2          -2.9290    10.9675    -1.4608 C.ar      1  LGD        -0.0418
     9 C3          -3.0628     8.7034    -0.2987 C.ar      1  LGD        -0.0418
    10 C4          -2.8157     8.0466    -1.6473 C.ar      1  LGD        -0.0418
    11 C5          -2.9945    10.1221    -0.1912 C.ar      1  LGD        -0.0418
    12 C6          -2.4455     8.8693    -2.7207 C.ar      1  LGD        -0.0418
    13 N1           2.2841    16.0955    -2.1022 N.pl3     1  LGD        -0.7630
    14 N2           1.9067     5.5318     5.1735 N.pl3     1  LGD        -0.7630
    15 N3          -2.4776    13.1660     8.1457 N.pl3     1  LGD        -0.7630
    16 N4         -10.1618    14.0527    -2.3348 N.pl3     1  LGD        -0.7630
    17 N5           3.9453    11.8027    -7.6635 N.pl3     1  LGD        -0.7630
    18 N6           0.7706     0.1339    -0.5342 N.pl3     1  LGD        -0.7630
    19 C7          -2.9250     6.5556    -1.9319 C.2       1  LGD         0.3455
    20 C8          -3.9211     7.9762     0.7092 C.2       1  LGD         0.3455
    21 C9          -2.9244    12.4691    -1.3172 C.2       1  LGD         0.3455
    22 C10         -3.1926    10.9285    -4.0732 C.2       1  LGD         0.3455
    23 C11         -3.1670    10.8265     1.1612 C.2       1  LGD         0.3455
    24 C12         -1.3612     8.3653    -3.6826 C.2       1  LGD         0.3455
    25 C13         -1.6338    14.0800     8.4610 C.ar      1  LGD        -0.0349
    26 C14          2.2601     4.5127     5.8688 C.ar      1  LGD        -0.0349
    27 C15         -9.8494    15.2271    -2.7515 C.ar      1  LGD        -0.0349
    28 C16          1.8043     0.1241    -1.2950 C.ar      1  LGD        -0.0349
    29 C17          4.5028    12.2532    -6.5987 C.ar      1  LGD        -0.0349
    30 C18          1.9329    15.2378    -1.2166 C.ar      1  LGD        -0.0349
    31 N7           2.3621     1.2822    -1.7311 N.ar      1  LGD        -0.1354
    32 N8          -0.9976    14.8094     7.5094 N.ar      1  LGD        -0.1354
    33 N9           3.9091    12.1326    -5.3827 N.ar      1  LGD        -0.1354
    34 N10          3.4800     4.4562     6.4609 N.ar      1  LGD        -0.1354
    35 N11         -8.6572    15.7947    -2.4328 N.ar      1  LGD        -0.1354
    36 N12          0.7909    15.3833    -0.4975 N.ar      1  LGD        -0.1354
    37 N13         -2.8680    10.0751     2.2494 N.am      1  LGD        -0.3307
    38 N14         -2.8592    12.2076    -4.3975 N.am      1  LGD        -0.3307
    39 N15         -0.9661     9.2589    -4.6203 N.am      1  LGD        -0.3307
    40 N16         -3.3435     7.1130     1.5952 N.am      1  LGD        -0.3307
    41 N17         -2.6663     5.7259    -0.8958 N.am      1  LGD        -0.3307
    42 N18         -3.9712    13.1749    -1.8175 N.am      1  LGD        -0.3307
    43 C19          0.4343    14.8537    -3.7061 C.ar      1  LGD        -0.7171
    44 C20         -8.0280    12.5924    -2.9330 C.ar      1  LGD        -0.7171
    45 C21         -2.3295    11.2014     6.3396 C.ar      1  LGD        -0.7171
    46 C22          2.4814     9.6958    -7.0873 C.ar      1  LGD        -0.7171
    47 C23          0.6032     6.0306     2.9041 C.ar      1  LGD        -0.7171
    48 C24         -1.3377     1.6524    -1.0663 C.ar      1  LGD        -0.7171
    49 S7           1.2126     3.2006     6.1164 S.3       1  LGD         0.5665
    50 S8         -10.9385    16.1687    -3.6495 S.3       1  LGD         0.5665
    51 S9           5.9772    13.0872    -6.6636 S.3       1  LGD         0.5665
    52 S10          2.9374    13.9268    -0.8303 S.3       1  LGD         0.5665
    53 S11         -1.2674    14.4243    10.0813 S.3       1  LGD         0.5665
    54 S12          2.5539    -1.3249    -1.7616 S.3       1  LGD         0.5665
    55 O1          -2.9442    10.8412     8.9077 O.2       1  LGD        -0.8626
    56 O2          -0.5818    -0.3721    -2.5854 O.2       1  LGD        -0.8626
    57 O3          -0.5428    11.5753     8.2306 O.2       1  LGD        -0.8626
    58 O4          -1.4684    -0.8671    -0.1866 O.2       1  LGD        -0.8626
    59 O5           5.1403     9.6105    -7.3638 O.2       1  LGD        -0.8626
    60 O6           2.4768     4.1952     3.1348 O.2       1  LGD        -0.8626
    61 O7           2.9731    15.3019    -4.3197 O.2       1  LGD        -0.8626
    62 O8         -10.0373    13.0572    -4.6250 O.2       1  LGD        -0.8626
    63 O9           3.6383    10.1271    -9.4337 O.2       1  LGD        -0.8626
    64 O10        -10.4597    11.6119    -2.4955 O.2       1  LGD        -0.8626
    65 O11          3.1453     6.7010     3.3619 O.2       1  LGD        -0.8626
    66 O12          1.3740    17.3293    -4.0386 O.2       1  LGD        -0.8626
    67 O13         -3.5129    12.0274     1.3393 O.2       1  LGD        -0.3143
    68 O14         -2.0086    13.0911    -0.7158 O.2       1  LGD        -0.3143
    69 O15         -3.7336    10.2377    -4.9775 O.2       1  LGD        -0.3143
    70 O16         -0.7662     7.2534    -3.6107 O.2       1  LGD        -0.3143
    71 O17         -3.1701     6.0770    -3.0755 O.2       1  LGD        -0.3143
    72 O18         -5.1574     8.1972     0.8087 O.2       1  LGD        -0.3143
    73 C25         -8.5915    17.0415    -2.9677 C.ar      1  LGD        -0.0326
    74 C26          4.6908    12.7177    -4.4394 C.ar      1  LGD        -0.0326
    75 C27          3.4415     0.9984    -2.5050 C.ar      1  LGD        -0.0326
    76 C28          3.5977     3.2832     7.1360 C.ar      1  LGD        -0.0326
    77 C29         -0.1488    15.6850     8.1073 C.ar      1  LGD        -0.0326
    78 C30          0.6946    14.3656     0.3973 C.ar      1  LGD        -0.0326
    79 C31          2.4524     2.5027     7.0288 C.ar      1  LGD        -0.4045
    80 C32         -0.1867    15.5831     9.4932 C.ar      1  LGD        -0.4045
    81 C33         -9.7541    17.3752    -3.6523 C.ar      1  LGD        -0.4045
    82 C34          3.6587    -0.3703    -2.6139 C.ar      1  LGD        -0.4045
    83 C35          5.8354    13.2815    -4.9903 C.ar      1  LGD        -0.4045
    84 C36          1.7795    13.4999     0.3229 C.ar      1  LGD        -0.4045
    85 C37         -3.2260    10.0506     5.9969 C.ar      1  LGD         0.0012
    86 C38         -1.6904    11.9292     5.3354 C.ar      1  LGD         0.0012
    87 C39          0.6436    13.3781    -3.5506 C.ar      1  LGD         0.0012
    88 C40          1.1342    10.0892    -7.6053 C.ar      1  LGD         0.0012
    89 C41          2.6140     9.0639    -5.8495 C.ar      1  LGD         0.0012
    90 C42         -0.8428    15.3607    -3.9476 C.ar      1  LGD         0.0012
    91 C43         -0.5657     5.1337     3.1511 C.ar      1  LGD         0.0012
    92 C44         -7.5051    11.8972    -1.7122 C.ar      1  LGD         0.0012
    93 C45         -7.1596    13.2530    -3.8011 C.ar      1  LGD         0.0012
    94 C46         -0.8594     2.6337    -2.0871 C.ar      1  LGD         0.0012
    95 C47         -2.2240     2.0469    -0.0608 C.ar      1  LGD         0.0012
    96 C48          0.4478     7.2104     2.1754 C.ar      1  LGD         0.0012
    97 C49         -2.0083     6.7772     1.9225 C.ar      1  LGD         0.0969
    98 C50         -1.7966    13.0458    -4.0014 C.ar      1  LGD         0.0969
    99 C51         -5.2349    12.7726    -2.2800 C.ar      1  LGD         0.0969
   100 C52          0.1497     9.2385    -5.4731 C.ar      1  LGD         0.0969
   101 C53         -2.2788     4.3740    -0.9802 C.ar      1  LGD         0.0969
   102 C54         -2.7405    10.4898     3.5852 C.ar      1  LGD         0.0969
   103 C55         -2.7123     3.4629    -0.0163 C.ar      1  LGD        -0.1688
   104 C56          0.0049     9.8701    -6.8201 C.ar      1  LGD        -0.1688
   105 C57         -1.9864    14.4214    -4.1397 C.ar      1  LGD        -0.1688
   106 C58          1.4033     8.8360    -5.0047 C.ar      1  LGD        -0.1688
   107 C59         -1.8261     5.5036     2.6890 C.ar      1  LGD        -0.1688
   108 C60         -1.3047     3.9510    -2.0391 C.ar      1  LGD        -0.1688
   109 C61         -0.9024     7.5950     1.6595 C.ar      1  LGD        -0.1688
   110 C62         -3.4155     9.6990     4.6605 C.ar      1  LGD        -0.1688
   111 C63         -6.1463    11.9716    -1.4020 C.ar      1  LGD        -0.1688
   112 C64         -1.9055    11.5625     3.9041 C.ar      1  LGD        -0.1688
   113 C65         -0.4409    12.5073    -3.6540 C.ar      1  LGD        -0.1688
   114 C66         -5.7181    13.3739    -3.4422 C.ar      1  LGD        -0.1688
   115 H1          -2.6491     9.1017     2.0960 H         1  LGD         0.2426
   116 H2          -3.3044    12.5505    -5.2363 H         1  LGD         0.2426
   117 H3          -1.4974    10.1121    -4.6895 H         1  LGD         0.2426
   118 H4          -4.0041     6.6296     2.1867 H         1  LGD         0.2426
   119 H5          -2.5385     6.1387     0.0138 H         1  LGD         0.2426
   120 H6          -3.8678    14.1790    -1.7847 H         1  LGD         0.2426
   121 H7          -7.6937    17.6285    -2.8177 H         1  LGD         0.2024
   122 H8           4.3617    12.7071    -3.4078 H         1  LGD         0.2024
   123 H9           4.0012     1.8165    -2.9412 H         1  LGD         0.2024
   124 H10          4.5201     3.0744     7.6633 H         1  LGD         0.2024
   125 H11          0.4477    16.3414     7.4860 H         1  LGD         0.2024
   126 H12         -0.1684    14.3234     1.0498 H         1  LGD         0.2024
   127 H13          2.2543     1.5249     7.4494 H         1  LGD         0.1841
   128 H14          0.3752    16.1413    10.2313 H         1  LGD         0.1841
   129 H15         -9.9956    18.2927    -4.1740 H         1  LGD         0.1841
   130 H16          4.4323    -0.8939    -3.1613 H         1  LGD         0.1841
   131 H17          6.6310    13.8238    -4.4955 H         1  LGD         0.1841
   132 H18          1.9799    12.6080     0.9027 H         1  LGD         0.1841
   133 H19         -3.7112     9.4814     6.7759 H         1  LGD         0.1607
   134 H20         -1.0305    12.7463     5.5851 H         1  LGD         0.1607
   135 H21          1.6285    12.9869    -3.3446 H         1  LGD         0.1607
   136 H22          1.0382    10.5703    -8.5674 H         1  LGD         0.1607
   137 H23          3.5886     8.8106    -5.4598 H         1  LGD         0.1607
   138 H24         -1.0066    16.4222    -4.0566 H         1  LGD         0.1607
   139 H25         -0.4404     4.2138     3.7027 H         1  LGD         0.1607
   140 H26         -8.1786    11.3636    -1.0580 H         1  LGD         0.1607
   141 H27         -7.5358    13.7732    -4.6695 H         1  LGD         0.1607
   142 H28         -0.1563     2.3309    -2.8490 H         1  LGD         0.1607
   143 H29         -2.5571     1.3429     0.6872 H         1  LGD         0.1607
   144 H30          1.2890     7.8630     1.9962 H         1  LGD         0.1607
   145 H31         -3.3917     3.7732     0.7639 H         1  LGD         0.1480
   146 H32         -0.9678    10.1798    -7.1739 H         1  LGD         0.1480
   147 H33         -2.9487    14.8139    -4.4321 H         1  LGD         0.1480
   148 H34          1.5216     8.4375    -4.0080 H         1  LGD         0.1480
   149 H35         -2.6751     4.8667     2.8908 H         1  LGD         0.1480
   150 H36         -0.9328     4.6616    -2.7615 H         1  LGD         0.1480
   151 H37         -0.9939     8.5274     1.1304 H         1  LGD         0.1480
   152 H38         -4.0462     8.8597     4.4053 H         1  LGD         0.1480
   153 H39         -5.7711    11.5005    -0.5055 H         1  LGD         0.1480
   154 H40         -1.3919    12.1109     3.1277 H         1  LGD         0.1480
   155 H41         -0.2835    11.4533    -3.5048 H         1  LGD         0.1480
   156 H42         -5.0778    14.0032    -4.0409 H         1  LGD         0.1480

@<TRIPOS>BOND
     1     2    46   1
     2     3    43   1
     3     4    44   1
     4     5    45   1
     5     6    47   1
     6     7    12  ar
     7     7     8  ar
     8     9    10  ar
     9    10    19   1
    10     9    11  ar
    11    10    12  ar
    12     3    13   1
    13     6    14   1
    14     5    15   1
    15     4    16   1
    16     2    17   1
    17     1    18   1
    18    19    41  am
    19     9    20   1
    20     8    21   1
    21     7    22   1
    22    11    23   1
    23    12    24   1
    24    15    25   1
    25    14    26   1
    26    16    27   1
    27    18    28   1
    28    17    29   1
    29    13    30   1
    30    28    31   2
    31    25    32   2
    32    29    33   2
    33    26    34   2
    34    27    35   2
    35    30    36   2
    36    23    37  am
    37    22    38  am
    38    24    39  am
    39    20    40  am
    40    41   101   1
    41    21    42  am
    42    43    87  ar
    43    44    93  ar
    44    45    86  ar
    45    46    89  ar
    46    47    96  ar
    47     1    48   1
    48    26    49   1
    49    27    50   1
    50    29    51   1
    51    30    52   1
    52    25    53   1
    53    28    54   1
    54     5    55   2
    55     1    56   2
    56     5    57   2
    57     1    58   2
    58     2    59   2
    59     6    60   2
    60     3    61   2
    61     4    62   2
    62     2    63   2
    63     4    64   2
    64     6    65   2
    65     3    66   2
    66    23    67   2
    67    21    68   2
    68    22    69   2
    69    24    70   2
    70    19    71   2
    71    20    72   2
    72    35    73   1
    73    33    74   1
    74    31    75   1
    75    34    76   1
    76    32    77   1
    77    36    78   1
    78    49    79   1
    79    53    80   1
    80    50    81   1
    81    54    82   1
    82    51    83   1
    83    52    84   1
    84    85   110  ar
    85    86   112  ar
    86    87   113  ar
    87    88   104  ar
    88    89   106  ar
    89    90   105  ar
    90    91   107  ar
    91    92   111  ar
    92    93   114  ar
    93    48    94  ar
    94    48    95  ar
    95    96   109  ar
    96    40    97   1
    97    38    98   1
    98    42    99   1
    99    39   100   1
   100   101   103  ar
   101    37   102   1
   102    95   103  ar
   103   100   104  ar
   104    98   105  ar
   105   100   106  ar
   106    97   107  ar
   107    94   108  ar
   108    97   109  ar
   109   102   110  ar
   110    99   111  ar
   111   102   112  ar
   112    98   113  ar
   113    99   114  ar
   114   101   108  ar
   115    75    82   2
   116     8    11  ar
   117    46    88  ar
   118    47    91  ar
   119    43    90  ar
   120    45    85  ar
   121    44    92  ar
   122    74    83   2
   123    76    79   2
   124    78    84   2
   125    77    80   2
   126    73    81   2
   127    37   115   1
   128    38   116   1
   129    39   117   1
   130    40   118   1
   131    41   119   1
   132    42   120   1
   133    73   121   1
   134    74   122   1
   135    75   123   1
   136    76   124   1
   137    77   125   1
   138    78   126   1
   139    79   127   1
   140    80   128   1
   141    81   129   1
   142    82   130   1
   143    83   131   1
   144    84   132   1
   145    85   133   1
   146    86   134   1
   147    87   135   1
   148    88   136   1
   149    89   137   1
   150    90   138   1
   151    91   139   1
   152    92   140   1
   153    93   141   1
   154    94   142   1
   155    95   143   1
   156    96   144   1
   157   103   145   1
   158   104   146   1
   159   105   147   1
   160   106   148   1
   161   107   149   1
   162   108   150   1
   163   109   151   1
   164   110   152   1
   165   111   153   1
   166   112   154   1
   167   113   155   1
   168   114   156   1

