@<TRIPOS>COMMENT
 LIGANDBOX_ID = HTS1610-02184783-01
 SOURCE = Namiki1610
 SOURCE_ID = NS-012637621-0000
 MOLECULAR_FORMULA = C88H80O24P8
 MOLECULAR_WEIGHT = 1769.376
 MOLECULAR_CHARGE = 8
 NUM_OF_DONOR = 0
 NUM_OF_ACCEPTOR = 24
 HOMO = -21.7477
 LUMO = -17.6799
 NUM_OF_CHIRAL_ATOMS = 1
 LOGS = ?
 LOGP = 9.7725
 NOTE = 

@<TRIPOS>MOLECULE
HTS1610-02184783-01
 200 220 0 0 0
SMALL
USER_CHARGES

@<TRIPOS>ATOM
     1 P1          -8.6104    -3.3404     0.3341 P.3       1  LGD         2.4324
     2 P2         -10.2548    -5.5817    -8.3519 P.3       1  LGD         2.4300
     3 P3          -0.8131    -3.5591   -10.7547 P.3       1  LGD         2.4324
     4 P4          -4.5078    -7.8570    -3.0283 P.3       1  LGD         2.4300
     5 P5          -4.0274    -5.4651     2.0321 P.3       1  LGD         2.4300
     6 P6         -10.7850    -2.2860    -3.5454 P.3       1  LGD         2.4300
     7 P7          -6.3398    -4.6569   -11.1600 P.3       1  LGD         2.4300
     8 P8          -2.8138    -1.8008    -6.5614 P.3       1  LGD         2.4300
     9 C1          -2.4502    -5.4429    -7.6542 C.ar      1  LGD        -0.0448
    10 C2          -7.3092    -3.4078    -4.4904 C.ar      1  LGD        -0.0448
    11 C3          -7.2038    -5.0379    -6.4878 C.ar      1  LGD        -0.0448
    12 C4          -3.5646    -3.6414    -1.4360 C.ar      1  LGD        -0.0448
    13 C5          -5.8327    -2.8961    -2.3857 C.ar      1  LGD        -0.0448
    14 C6          -1.6803    -4.5744    -5.4069 C.ar      1  LGD        -0.0448
    15 C7          -2.0179    -4.8717    -2.9776 C.ar      1  LGD        -0.0448
    16 C8          -4.9956    -5.5079    -7.9042 C.ar      1  LGD        -0.0448
    17 C9          -2.9841    -4.1061    -5.3369 C.ar      1  LGD         0.0909
    18 C10         -3.2567    -5.5876    -3.3957 C.ar      1  LGD         0.0909
    19 C11         -8.7669    -3.7639    -4.3446 C.ar      1  LGD         0.0909
    20 C12         -8.5875    -5.2446    -6.3837 C.ar      1  LGD         0.0909
    21 C13         -6.4541    -3.2411    -1.1730 C.ar      1  LGD         0.0909
    22 C14         -4.2502    -3.9936    -0.1511 C.ar      1  LGD         0.0909
    23 C15         -4.9039    -4.6315    -8.9944 C.ar      1  LGD         0.0909
    24 C16         -2.3733    -4.5696    -8.8732 C.ar      1  LGD         0.0909
    25 O1           0.6908    -3.9399   -11.1129 O.3       1  LGD        -0.5698
    26 O2          -3.8333    -8.3072    -4.3983 O.3       1  LGD        -0.6156
    27 O3         -11.2340    -4.4781    -7.7517 O.3       1  LGD        -0.6156
    28 O4          -3.7986    -8.9981    -2.1728 O.3       1  LGD        -0.6156
    29 O5          -2.8797    -5.6194     3.1254 O.3       1  LGD        -0.6156
    30 O6         -10.1794    -3.2877     0.0846 O.3       1  LGD        -0.6156
    31 O7          -5.0164    -4.6903     3.0119 O.3       1  LGD        -0.6156
    32 O8         -11.5943    -2.7252    -4.8465 O.3       1  LGD        -0.6156
    33 O9          -9.4722    -4.5591    -9.2859 O.3       1  LGD        -0.6156
    34 O10        -11.9275    -2.7596    -2.5400 O.3       1  LGD        -0.6156
    35 O11         -5.2205    -5.6876   -11.6376 O.3       1  LGD        -0.6156
    36 O12         -1.4432    -4.5180   -11.8608 O.3       1  LGD        -0.6156
    37 O13         -7.4903    -5.7545   -11.0997 O.3       1  LGD        -0.6156
    38 O14         -2.4644    -1.1185    -5.1690 O.3       1  LGD        -0.6156
    39 O15         -8.5739    -4.9156     0.5646 O.3       1  LGD        -0.6156
    40 O16         -1.2973    -1.9359    -7.0240 O.3       1  LGD        -0.6156
    41 C17         -2.0978    -4.0908    -1.6606 C.3       1  LGD        -0.0125
    42 C18         -6.6676    -2.3323    -3.5713 C.3       1  LGD        -0.0125
    43 C19         -6.3799    -5.9989    -7.3998 C.3       1  LGD        -0.0125
    44 C20         -1.2932    -5.4552    -6.6187 C.3       1  LGD        -0.0125
    45 C21         -4.3202    -2.9971    -2.4390 C.ar      1  LGD        -0.0728
    46 C22         -6.6255    -3.9655    -5.5896 C.ar      1  LGD        -0.0728
    47 C23         -3.6900    -6.0302    -7.3380 C.ar      1  LGD        -0.0728
    48 C24         -1.0938    -4.6389    -4.0176 C.ar      1  LGD        -0.0728
    49 O17         -3.8916    -6.4784    -2.5419 O.3       1  LGD        -0.6274
    50 O18         -9.5363    -3.2470    -3.3087 O.3       1  LGD        -0.6274
    51 O19         -9.2550    -6.1103    -7.2372 O.3       1  LGD        -0.6274
    52 O20         -3.4877    -4.4656     0.9183 O.3       1  LGD        -0.6274
    53 O21         -6.0454    -4.2139    -9.6618 O.3       1  LGD        -0.6274
    54 O22         -1.1188    -4.1442    -9.3090 O.3       1  LGD        -0.6274
    55 O23         -7.8287    -3.0536    -1.0189 O.3       1  LGD        -0.6274
    56 O24         -3.4764    -3.2185    -6.2836 O.3       1  LGD        -0.6274
    57 C25         -5.6220    -3.7646    -0.0318 C.ar      1  LGD        -0.2199
    58 C26         -3.8381    -5.0623    -4.5421 C.ar      1  LGD        -0.2199
    59 C27         -9.3574    -4.6384    -5.2575 C.ar      1  LGD        -0.2199
    60 C28         -3.5647    -4.1769    -9.4976 C.ar      1  LGD        -0.2199
    61 C29         -4.4938    -4.5304     4.2720 C.ar      1  LGD        -0.0441
    62 C30        -12.8008    -3.3144    -4.5478 C.ar      1  LGD        -0.0214
    63 C31         -3.0030    -9.8162    -2.9417 C.ar      1  LGD        -0.0214
    64 C32         -3.0347    -9.4156    -4.2570 C.ar      1  LGD        -0.0214
    65 C33         -9.9836    -3.2848    -9.2096 C.ar      1  LGD        -0.0214
    66 C34        -13.0027    -3.3251    -3.1873 C.ar      1  LGD        -0.0214
    67 C35         -5.7000    -6.9715   -11.7450 C.ar      1  LGD        -0.0214
    68 C36          0.7748    -4.8112   -12.1741 C.ar      1  LGD        -0.0214
    69 C37         -0.4837    -5.1515   -12.6151 C.ar      1  LGD        -0.0214
    70 C38         -3.2357    -5.0829     4.3419 C.ar      1  LGD        -0.0214
    71 C39         -7.0370    -7.0113   -11.4225 C.ar      1  LGD        -0.0214
    72 C40         -1.1221    -0.8581    -5.0418 C.ar      1  LGD        -0.0214
    73 C41        -11.0235    -3.2363    -8.3082 C.ar      1  LGD        -0.0214
    74 C42        -10.7722    -4.5175     0.2498 C.ar      1  LGD        -0.0214
    75 C43         -9.8242    -5.4807     0.5073 C.ar      1  LGD        -0.0214
    76 C44         -0.4329    -1.3405    -6.1326 C.ar      1  LGD        -0.0214
    77 C45         -1.1044    -2.9239    -1.4867 C.3       1  LGD        -0.1466
    78 C46         -5.9933    -1.1900    -4.3607 C.3       1  LGD        -0.1466
    79 C47         -6.3892    -7.4354    -6.8056 C.3       1  LGD        -0.1466
    80 C48         -0.8848    -6.8929    -6.2300 C.3       1  LGD        -0.1466
    81 C49         -2.2777   -10.1465    -5.3127 C.ar      1  LGD        -0.0792
    82 C50         -2.1881   -10.9868    -2.5086 C.ar      1  LGD        -0.0792
    83 C51         -2.4532    -5.0665     5.6109 C.ar      1  LGD        -0.0792
    84 C52         -5.1249    -3.8764     5.4534 C.ar      1  LGD        -0.0792
    85 C53        -12.2233    -4.8483     0.2355 C.ar      1  LGD        -0.0792
    86 C54        -10.1999    -6.9089     0.7082 C.ar      1  LGD        -0.0792
    87 C55        -13.7875    -3.9287    -5.4832 C.ar      1  LGD        -0.0792
    88 C56        -14.2372    -3.9168    -2.5944 C.ar      1  LGD        -0.0792
    89 C57        -11.7792    -1.9728    -8.0668 C.ar      1  LGD        -0.0792
    90 C58         -9.5653    -2.0782    -9.9788 C.ar      1  LGD        -0.0792
    91 C59         -4.9516    -8.2085   -12.1081 C.ar      1  LGD        -0.0792
    92 C60         -7.7965    -8.2933   -11.4151 C.ar      1  LGD        -0.0792
    93 C61         -0.6789    -6.0580   -13.7824 C.ar      1  LGD        -0.0792
    94 C62          1.9998    -5.3357   -12.8433 C.ar      1  LGD        -0.0792
    95 C63         -0.4362    -0.0958    -3.9607 C.ar      1  LGD        -0.0792
    96 C64          1.0346    -1.1225    -6.2765 C.ar      1  LGD        -0.0792
    97 C65          0.2942    -3.4083    -1.0540 C.3       1  LGD        -0.1638
    98 C66         -6.3164    -8.5894    -7.8279 C.3       1  LGD        -0.1638
    99 C67         -5.6578     0.0249    -3.4713 C.3       1  LGD        -0.1638
   100 C68          0.5695    -7.0039    -5.7320 C.3       1  LGD        -0.1638
   101 C69         -1.4614   -11.6781    -3.4831 C.ar      1  LGD        -0.0483
   102 C70        -11.4013    -0.8322    -8.7804 C.ar      1  LGD        -0.0483
   103 C71        -10.2634    -0.8861    -9.7635 C.ar      1  LGD        -0.0483
   104 C72        -12.5979    -6.1818     0.4244 C.ar      1  LGD        -0.0468
   105 C73        -11.5560    -7.2440     0.6533 C.ar      1  LGD        -0.0468
   106 C74         -5.6477    -9.4211   -12.1040 C.ar      1  LGD        -0.0468
   107 C75         -7.1091    -9.4650   -11.7450 C.ar      1  LGD        -0.0468
   108 C76         -3.0322    -4.4641     6.7324 C.ar      1  LGD        -0.0468
   109 C77         -4.4036    -3.8482     6.6504 C.ar      1  LGD        -0.0468
   110 C78          0.4588    -6.5545   -14.4259 C.ar      1  LGD        -0.0468
   111 C79          1.8357    -6.1838   -13.9428 C.ar      1  LGD        -0.0468
   112 C80        -14.9351    -4.5129    -4.9409 C.ar      1  LGD        -0.0468
   113 C81        -15.1695    -4.5010    -3.4555 C.ar      1  LGD        -0.0468
   114 C82          0.9383     0.1233    -4.0837 C.ar      1  LGD        -0.0468
   115 C83          1.6940    -0.4044    -5.2738 C.ar      1  LGD        -0.0468
   116 C84         -1.5120   -11.2498    -4.9254 C.ar      1  LGD        -0.0468
   117 C85          1.2585    -2.2243    -0.9029 C.3       1  LGD        -0.2110
   118 C86         -5.0849     1.1809    -4.3035 C.3       1  LGD        -0.2110
   119 C87         -4.9554    -8.7677    -8.5137 C.3       1  LGD        -0.2110
   120 C88          0.8599    -8.4220    -5.2200 C.3       1  LGD        -0.2110
   121 H1          -8.2152    -2.5932     1.4392 H         1  LGD        -0.2405
   122 H2         -10.9258    -6.5689    -9.0666 H         1  LGD        -0.2418
   123 H3          -1.0880    -2.2097   -10.9479 H         1  LGD        -0.2594
   124 H4          -5.8955    -7.9480    -3.0369 H         1  LGD        -0.2418
   125 H5          -4.5015    -6.6938     1.5855 H         1  LGD        -0.2418
   126 H6         -10.5314    -0.9197    -3.4814 H         1  LGD        -0.2418
   127 H7          -6.5711    -3.6370   -12.0775 H         1  LGD        -0.2418
   128 H8          -3.5594    -0.9563    -7.3771 H         1  LGD        -0.2418
   129 H9          -1.8623    -4.8221    -0.8895 H         1  LGD         0.1233
   130 H10         -7.5084    -1.8178    -3.1127 H         1  LGD         0.1233
   131 H11         -6.9764    -6.0890    -8.3051 H         1  LGD         0.1233
   132 H12         -0.4247    -4.9886    -7.0797 H         1  LGD         0.1233
   133 H13         -3.8083    -2.6520    -3.3206 H         1  LGD         0.1644
   134 H14         -5.6509    -3.6061    -5.8033 H         1  LGD         0.1868
   135 H15         -3.7144    -6.7273    -6.5198 H         1  LGD         0.1868
   136 H16         -0.1403    -4.1680    -3.8385 H         1  LGD         0.1868
   137 H17         -6.0927    -3.9655     0.9129 H         1  LGD         0.1538
   138 H18         -4.8022    -5.4067    -4.8613 H         1  LGD         0.1538
   139 H19        -10.3895    -4.9272    -5.1292 H         1  LGD         0.1538
   140 H20         -3.5429    -3.5152   -10.3500 H         1  LGD         0.1538
   141 H21         -1.4822    -2.2578    -0.7109 H         1  LGD         0.0842
   142 H22         -1.0429    -2.3530    -2.4109 H         1  LGD         0.0842
   143 H23         -6.6735    -0.8661    -5.1487 H         1  LGD         0.0842
   144 H24         -5.0901    -1.5536    -4.8349 H         1  LGD         0.0842
   145 H25         -7.3232    -7.5839    -6.2669 H         1  LGD         0.0842
   146 H26         -5.6158    -7.5480    -6.0556 H         1  LGD         0.0842
   147 H27         -0.9925    -7.5404    -7.1004 H         1  LGD         0.0842
   148 H28         -1.5616    -7.2547    -5.4589 H         1  LGD         0.0842
   149 H29         -2.3160    -9.8320    -6.3452 H         1  LGD         0.1803
   150 H30         -2.1574   -11.2903    -1.4724 H         1  LGD         0.1803
   151 H31         -1.4704    -5.5115     5.6646 H         1  LGD         0.1803
   152 H32         -6.1096    -3.4374     5.3864 H         1  LGD         0.1803
   153 H33        -12.9628    -4.0735     0.1105 H         1  LGD         0.1803
   154 H34         -9.4468    -7.6623     0.8869 H         1  LGD         0.1803
   155 H35        -13.6206    -3.9343    -6.5493 H         1  LGD         0.1803
   156 H36        -14.4155    -3.8935    -1.5312 H         1  LGD         0.1803
   157 H37        -12.6020    -1.9365    -7.3691 H         1  LGD         0.1803
   158 H38         -8.7530    -2.1251   -10.6888 H         1  LGD         0.1803
   159 H39         -3.9015    -8.1709   -12.3590 H         1  LGD         0.1803
   160 H40         -8.8442    -8.3174   -11.1539 H         1  LGD         0.1803
   161 H41         -1.6697    -6.3164   -14.1264 H         1  LGD         0.1803
   162 H42          2.9852    -5.0631   -12.4944 H         1  LGD         0.1803
   163 H43         -0.9865     0.2834    -3.1118 H         1  LGD         0.1803
   164 H44          1.5698    -1.4930    -7.1383 H         1  LGD         0.1803
   165 H45          0.7014    -4.1070    -1.7821 H         1  LGD         0.0987
   166 H46          0.2193    -3.9243    -0.0970 H         1  LGD         0.0987
   167 H47         -7.0867    -8.4518    -8.5854 H         1  LGD         0.0987
   168 H48         -6.5442    -9.5159    -7.3012 H         1  LGD         0.0987
   169 H49         -4.9293    -0.2549    -2.7116 H         1  LGD         0.0987
   170 H50         -6.5609     0.3708    -2.9690 H         1  LGD         0.0987
   171 H51          0.7549    -6.2998    -4.9243 H         1  LGD         0.0987
   172 H52          1.2512    -6.7717    -6.5498 H         1  LGD         0.0987
   173 H53         -0.8594   -12.5290    -3.1994 H         1  LGD         0.2116
   174 H54        -11.9355     0.0949    -8.6300 H         1  LGD         0.2116
   175 H55         -9.9890     0.0034   -10.3119 H         1  LGD         0.2116
   176 H56        -13.6442    -6.4501     0.4217 H         1  LGD         0.2097
   177 H57        -11.8601    -8.2713     0.7914 H         1  LGD         0.2097
   178 H58         -5.1318   -10.3358   -12.3570 H         1  LGD         0.2097
   179 H59         -7.6309   -10.4109   -11.7420 H         1  LGD         0.2097
   180 H60         -2.4913    -4.4405     7.6671 H         1  LGD         0.2097
   181 H61         -4.8343    -3.3818     7.5245 H         1  LGD         0.2097
   182 H62          0.3498    -7.2077   -15.2795 H         1  LGD         0.2097
   183 H63          2.7044    -6.5745   -14.4524 H         1  LGD         0.2097
   184 H64        -15.6628    -4.9727    -5.5935 H         1  LGD         0.2097
   185 H65        -16.0683    -4.9433    -3.0514 H         1  LGD         0.2097
   186 H66          1.4622     0.6789    -3.3195 H         1  LGD         0.2097
   187 H67          2.7549    -0.2188    -5.3569 H         1  LGD         0.2097
   188 H68         -0.9497   -11.7983    -5.6669 H         1  LGD         0.2097
   189 H69          1.3705    -1.7072    -1.8543 H         1  LGD         0.0925
   190 H70          2.2353    -2.5856    -0.5836 H         1  LGD         0.0925
   191 H71          0.8820    -1.5252    -0.1568 H         1  LGD         0.0925
   192 H72         -4.1623     0.8769    -4.7935 H         1  LGD         0.0925
   193 H73         -4.8704     2.0282    -3.6533 H         1  LGD         0.0925
   194 H74         -5.8036     1.4934    -5.0602 H         1  LGD         0.0925
   195 H75         -4.9779    -9.6626    -9.1339 H         1  LGD         0.0925
   196 H76         -4.1708    -8.8835    -7.7676 H         1  LGD         0.0925
   197 H77         -4.7311    -7.9156    -9.1506 H         1  LGD         0.0925
   198 H78          0.2169    -8.6529    -4.3711 H         1  LGD         0.0925
   199 H79          1.8984    -8.4912    -4.8987 H         1  LGD         0.0925
   200 H80          0.6872    -9.1524    -6.0097 H         1  LGD         0.0925

@<TRIPOS>BOND
     1     2    51   1
     2     3    54   1
     3     4    49   1
     4     5    52   1
     5     6    50   1
     6     7    53   1
     7     8    56   1
     8     9    44   1
     9    10    42   1
    10    11    46  ar
    11    12    22  ar
    12    13    21  ar
    13    14    48  ar
    14    15    41   1
    15    16    43   1
    16    14    17  ar
    17    15    18  ar
    18    10    19  ar
    19    11    20  ar
    20    21    55   1
    21    22    57  ar
    22    16    23  ar
    23     9    24  ar
    24     3    25   1
    25     4    26   1
    26     2    27   1
    27     4    28   1
    28     5    29   1
    29     1    30   1
    30     5    31   1
    31     6    32   1
    32     2    33   1
    33     6    34   1
    34     7    35   1
    35     3    36   1
    36     7    37   1
    37     8    38   1
    38     1    39   1
    39     8    40   1
    40    12    41   1
    41    13    42   1
    42    11    43   1
    43    14    44   1
    44    13    45  ar
    45    10    46  ar
    46    16    47  ar
    47    15    48  ar
    48    18    49   1
    49    19    50   1
    50    20    51   1
    51    22    52   1
    52    23    53   1
    53    24    54   1
    54     1    55   1
    55    17    56   1
    56    21    57  ar
    57    18    58  ar
    58    19    59  ar
    59    23    60  ar
    60    31    61   1
    61    32    62   1
    62    28    63   1
    63    26    64   1
    64    33    65   1
    65    34    66   1
    66    35    67   1
    67    25    68   1
    68    36    69   1
    69    29    70   1
    70    37    71   1
    71    38    72   1
    72    27    73   1
    73    30    74   1
    74    39    75   1
    75    40    76   1
    76    41    77   1
    77    42    78   1
    78    43    79   1
    79    44    80   1
    80    64    81  ar
    81    63    82  ar
    82    70    83  ar
    83    61    84  ar
    84    74    85  ar
    85    75    86  ar
    86    62    87  ar
    87    66    88  ar
    88    73    89  ar
    89    65    90  ar
    90    67    91  ar
    91    71    92  ar
    92    69    93  ar
    93    68    94  ar
    94    72    95  ar
    95    76    96  ar
    96    77    97   1
    97    79    98   1
    98    78    99   1
    99    80   100   1
   100    82   101  ar
   101    89   102  ar
   102    90   103  ar
   103    85   104  ar
   104    86   105  ar
   105    91   106  ar
   106    92   107  ar
   107    83   108  ar
   108    84   109  ar
   109    93   110  ar
   110    94   111  ar
   111    87   112  ar
   112    88   113  ar
   113    95   114  ar
   114    96   115  ar
   115    81   116  ar
   116    97   117   1
   117    99   118   1
   118    98   119   1
   119   100   120   1
   120    74    75  ar
   121    12    45  ar
   122   104   105  ar
   123    20    59  ar
   124    61    70  ar
   125    17    58  ar
   126   108   109  ar
   127     9    47  ar
   128    62    66  ar
   129    24    60  ar
   130    63    64  ar
   131    65    73  ar
   132   112   113  ar
   133    72    76  ar
   134   101   116  ar
   135    67    71  ar
   136   102   103  ar
   137    68    69  ar
   138   114   115  ar
   139   106   107  ar
   140   110   111  ar
   141     1   121   1
   142     2   122   1
   143     3   123   1
   144     4   124   1
   145     5   125   1
   146     6   126   1
   147     7   127   1
   148     8   128   1
   149    41   129   1
   150    42   130   1
   151    43   131   1
   152    44   132   1
   153    45   133   1
   154    46   134   1
   155    47   135   1
   156    48   136   1
   157    57   137   1
   158    58   138   1
   159    59   139   1
   160    60   140   1
   161    77   141   1
   162    77   142   1
   163    78   143   1
   164    78   144   1
   165    79   145   1
   166    79   146   1
   167    80   147   1
   168    80   148   1
   169    81   149   1
   170    82   150   1
   171    83   151   1
   172    84   152   1
   173    85   153   1
   174    86   154   1
   175    87   155   1
   176    88   156   1
   177    89   157   1
   178    90   158   1
   179    91   159   1
   180    92   160   1
   181    93   161   1
   182    94   162   1
   183    95   163   1
   184    96   164   1
   185    97   165   1
   186    97   166   1
   187    98   167   1
   188    98   168   1
   189    99   169   1
   190    99   170   1
   191   100   171   1
   192   100   172   1
   193   101   173   1
   194   102   174   1
   195   103   175   1
   196   104   176   1
   197   105   177   1
   198   106   178   1
   199   107   179   1
   200   108   180   1
   201   109   181   1
   202   110   182   1
   203   111   183   1
   204   112   184   1
   205   113   185   1
   206   114   186   1
   207   115   187   1
   208   116   188   1
   209   117   189   1
   210   117   190   1
   211   117   191   1
   212   118   192   1
   213   118   193   1
   214   118   194   1
   215   119   195   1
   216   119   196   1
   217   119   197   1
   218   120   198   1
   219   120   199   1
   220   120   200   1

