@<TRIPOS>COMMENT
 LIGANDBOX_ID = HTS1610-01910741-01
 SOURCE = Namiki1610
 SOURCE_ID = NS-012398358-0000
 MOLECULAR_FORMULA = C128H102N4O12
 MOLECULAR_WEIGHT = 1888.240
 MOLECULAR_CHARGE = 0
 NUM_OF_DONOR = 2
 NUM_OF_ACCEPTOR = 14
 HOMO = -6.7451
 LUMO = -2.2104
 NUM_OF_CHIRAL_ATOMS = 0
 LOGS = ?
 LOGP = 2.6884
 NOTE = 

@<TRIPOS>MOLECULE
HTS1610-01910741-01
 246 266 0 0 0
SMALL
USER_CHARGES

@<TRIPOS>ATOM
     1 C1           8.9651   -18.2484    -0.3453 C.ar      1  LGD        -0.0260
     2 C2          13.1176   -14.0861     0.3263 C.ar      1  LGD        -0.0260
     3 C3          11.5404   -18.2402     0.1799 C.ar      1  LGD         0.0110
     4 C4          13.1502   -16.6683     0.2591 C.ar      1  LGD         0.0110
     5 C5           8.9487   -12.5774     0.3277 C.ar      1  LGD         0.0110
     6 C6           7.3860   -14.1629     0.2352 C.ar      1  LGD         0.0110
     7 N1           8.6952   -16.9402    -0.0482 N.ar      1  LGD        -0.2054
     8 N2          11.7961   -13.8480     0.0394 N.ar      1  LGD        -0.2054
     9 C7          11.5270   -12.5329     0.3328 C.ar      1  LGD        -0.0260
    10 C8           7.3798   -16.7000    -0.3506 C.ar      1  LGD        -0.0260
    11 C9          10.2596   -18.9630    -0.1132 C.ar      1  LGD         0.0266
    12 C10         13.8827   -15.3620     0.1040 C.ar      1  LGD         0.0266
    13 C11          6.6491   -15.4148    -0.1197 C.ar      1  LGD         0.0266
    14 C12         10.2258   -11.8145     0.1268 C.ar      1  LGD         0.0266
    15 N3           8.7068   -13.8848     0.0065 N.ar      1  LGD        -0.1360
    16 N4          11.8344   -16.9192    -0.0485 N.ar      1  LGD        -0.1360
    17 C13          7.7587   -18.8757    -0.9470 C.2       1  LGD        -0.1762
    18 C14         13.6704   -12.9040     1.0375 C.2       1  LGD        -0.1762
    19 C15         12.6521   -18.8466     0.7430 C.ar      1  LGD        -0.1669
    20 C16         13.6864   -17.8206     0.8178 C.ar      1  LGD        -0.1669
    21 C17          7.7232   -12.0207     0.9643 C.ar      1  LGD        -0.1669
    22 C18          6.7556   -12.9860     0.8847 C.ar      1  LGD        -0.1669
    23 C19          6.7809   -17.9177    -0.9549 C.2       1  LGD        -0.1762
    24 C20         12.6961   -11.9464     1.0332 C.2       1  LGD        -0.1762
    25 C21         10.2932   -20.4611    -0.2087 C.ar      1  LGD        -0.0485
    26 C22         15.3876   -15.3072    -0.1422 C.ar      1  LGD        -0.0485
    27 C23         10.1775   -10.3213    -0.1593 C.ar      1  LGD        -0.0485
    28 C24          5.1531   -15.3482    -0.2693 C.ar      1  LGD        -0.0485
    29 C25          8.4155    -1.0111    -0.6801 C.ar      1  LGD        -0.2429
    30 C26         -4.1695   -13.9035    -0.6433 C.ar      1  LGD        -0.2429
    31 C27         11.9658   -29.6777    -0.0491 C.ar      1  LGD        -0.2429
    32 C28         24.6985   -13.7356     0.3699 C.ar      1  LGD        -0.2429
    33 C29         -3.4076   -12.6078    -0.5954 C.ar      1  LGD         0.1132
    34 C30         -3.5059   -15.1381    -0.5868 C.ar      1  LGD         0.1132
    35 C31          9.6925    -1.5950    -0.6537 C.ar      1  LGD         0.1132
    36 C32         13.2000   -28.8330    -0.0678 C.ar      1  LGD         0.1132
    37 C33         10.6906   -29.0987     0.0334 C.ar      1  LGD         0.1132
    38 C34          7.1784    -1.8491    -0.6269 C.ar      1  LGD         0.1132
    39 C35         24.0077   -15.0711     0.3890 C.ar      1  LGD         0.1132
    40 C36         23.9914   -12.5673     0.0677 C.ar      1  LGD         0.1132
    41 C37         21.8328   -13.8610     0.0207 C.ar      1  LGD        -0.0347
    42 C38         -1.2855   -13.9561    -0.4323 C.ar      1  LGD        -0.0347
    43 C39          8.6585    -3.8840    -0.5283 C.ar      1  LGD        -0.0347
    44 C40         11.7191   -26.8032     0.0830 C.ar      1  LGD        -0.0347
    45 C41          4.5573   -14.2127    -0.8299 C.ar      1  LGD        -0.0918
    46 C42          4.2672   -16.4824     0.1590 C.ar      1  LGD        -0.0918
    47 C43         11.4144    -9.4670    -0.2871 C.ar      1  LGD        -0.0918
    48 C44          9.2552   -21.2467     0.3047 C.ar      1  LGD        -0.0918
    49 C45         11.4510   -21.1385    -0.8810 C.ar      1  LGD        -0.0918
    50 C46          8.9686    -9.7008    -0.5042 C.ar      1  LGD        -0.0918
    51 C47         16.1768   -16.4519    -0.3475 C.ar      1  LGD        -0.0918
    52 C48         16.0849   -13.9911    -0.3722 C.ar      1  LGD        -0.0918
    53 O1          14.4224   -29.5046    -0.1376 O.3       1  LGD        -0.2139
    54 O2           9.4987   -29.8274     0.0531 O.3       1  LGD        -0.2139
    55 O3           5.9507    -1.1823    -0.6584 O.3       1  LGD        -0.2139
    56 O4          10.8842    -0.8654    -0.7010 O.3       1  LGD        -0.2139
    57 O5          -4.1627   -16.3740    -0.6304 O.3       1  LGD        -0.2139
    58 O6          -4.0222   -11.3527    -0.6407 O.3       1  LGD        -0.2139
    59 O7          24.5817   -11.3091    -0.0764 O.3       1  LGD        -0.2139
    60 O8          24.7131   -16.2675     0.5284 O.3       1  LGD        -0.2139
    61 O9          10.4577   -24.7522    -0.4562 O.3       1  LGD        -0.2125
    62 O10         19.7217   -15.1126    -0.4440 O.3       1  LGD        -0.2125
    63 O11          9.9689    -6.0166    -0.7516 O.3       1  LGD        -0.2125
    64 O12          0.8673   -15.1485    -0.7694 O.3       1  LGD        -0.2125
    65 C49          7.3113    -3.2403    -0.5545 C.ar      1  LGD        -0.1758
    66 C50         22.5090   -12.6457    -0.0894 C.ar      1  LGD        -0.1758
    67 C51         -2.0122   -15.1504    -0.4670 C.ar      1  LGD        -0.1758
    68 C52         13.0689   -27.4393    -0.0126 C.ar      1  LGD        -0.1758
    69 C53         -2.0171   -12.6507    -0.5003 C.ar      1  LGD        -0.1758
    70 C54         22.6175   -15.1199     0.2490 C.ar      1  LGD        -0.1758
    71 C55         10.5782   -27.6079     0.1102 C.ar      1  LGD        -0.1758
    72 C56          9.8056    -3.0880    -0.5697 C.ar      1  LGD        -0.1758
    73 C57         10.0016    -7.4105    -0.6205 C.ar      1  LGD         0.0726
    74 C58         10.4090   -23.3661    -0.3871 C.ar      1  LGD         0.0726
    75 C59         18.3229   -15.1357    -0.4283 C.ar      1  LGD         0.0726
    76 C60          2.2502   -15.1793    -0.5942 C.ar      1  LGD         0.0726
    77 C61          0.2285   -13.9337    -0.2887 C.3       1  LGD         0.0302
    78 C62          8.6903    -5.3979    -0.4453 C.3       1  LGD         0.0302
    79 C63         11.6355   -25.2924     0.1953 C.3       1  LGD         0.0302
    80 C64         20.3166   -13.8426    -0.0694 C.3       1  LGD         0.0302
    81 C65         -5.6066   -16.3448    -0.7979 C.3       1  LGD         0.0275
    82 C66          9.5982   -31.2759     0.0222 C.3       1  LGD         0.0311
    83 C67         10.7768     0.5789    -0.8209 C.3       1  LGD         0.0311
    84 C68         -5.4739   -11.3494    -0.7003 C.3       1  LGD         0.0311
    85 C69          4.7520    -1.9929    -0.5323 C.3       1  LGD         0.0311
    86 C70         26.0234   -11.2322    -0.2653 C.3       1  LGD         0.0311
    87 C71         15.6326   -28.7039    -0.1077 C.3       1  LGD         0.0311
    88 C72         26.0679   -16.2343    -0.0017 C.3       1  LGD         0.0311
    89 C73          9.3172   -22.7399     0.2140 C.ar      1  LGD        -0.1686
    90 C74         11.3270    -8.0859    -0.4781 C.ar      1  LGD        -0.1686
    91 C75          8.8654    -8.2247    -0.6870 C.ar      1  LGD        -0.1686
    92 C76          2.8817   -16.3982     0.0041 C.ar      1  LGD        -0.1686
    93 C77          3.0760   -14.1315    -1.0118 C.ar      1  LGD        -0.1686
    94 C78         17.4709   -13.9016    -0.4758 C.ar      1  LGD        -0.1686
    95 C79         17.6716   -16.3670    -0.4333 C.ar      1  LGD        -0.1686
    96 C80         11.4990   -22.5266    -0.9798 C.ar      1  LGD        -0.1686
    97 C81         -6.2463   -17.7182    -0.8633 C.ar      1  LGD        -0.0969
    98 C82          3.4670    -1.1849    -0.5600 C.ar      1  LGD        -0.0969
    99 C83         16.9004   -29.5406    -0.1365 C.ar      1  LGD        -0.0969
   100 C84         12.1193     1.2863    -0.8853 C.ar      1  LGD        -0.0969
   101 C85         26.5229   -12.0226    -1.4647 C.ar      1  LGD        -0.0969
   102 C86         -6.0950    -9.9646    -0.7290 C.ar      1  LGD        -0.0969
   103 C87          8.2479   -31.9717     0.0471 C.ar      1  LGD        -0.0969
   104 C88         26.7460   -17.5906    -0.0176 C.ar      1  LGD        -0.0969
   105 C89         13.3367     0.5970    -0.8551 C.ar      1  LGD        -0.1141
   106 C90         12.1287     2.7812    -0.9881 C.ar      1  LGD        -0.1141
   107 C91          3.4571     0.2131    -0.6207 C.ar      1  LGD        -0.1141
   108 C92         16.8787   -30.9402    -0.1453 C.ar      1  LGD        -0.1141
   109 C93         18.2199   -28.8311    -0.1458 C.ar      1  LGD        -0.1141
   110 C94          2.1648    -1.9244    -0.5163 C.ar      1  LGD        -0.1141
   111 C95         -7.6393   -17.8027    -0.9205 C.ar      1  LGD        -0.1141
   112 C96         -5.4327   -18.9785    -0.8817 C.ar      1  LGD        -0.1141
   113 C97          7.0382   -31.2679     0.0680 C.ar      1  LGD        -0.1141
   114 C98          8.2207   -33.4698     0.0434 C.ar      1  LGD        -0.1141
   115 C99         -5.3337    -8.7931    -0.6595 C.ar      1  LGD        -0.1141
   116 C100        -7.5865    -9.8633    -0.8316 C.ar      1  LGD        -0.1141
   117 C101        26.0207   -18.7809    -0.1211 C.ar      1  LGD        -0.1141
   118 C102        28.2428   -17.6442     0.0310 C.ar      1  LGD        -0.1141
   119 C103        25.8015   -12.0575    -2.6611 C.ar      1  LGD        -0.1141
   120 C104        27.7985   -12.8009    -1.3523 C.ar      1  LGD        -0.1141
   121 C105        -6.0060    -7.4565    -0.6900 C.ar      1  LGD        -0.1298
   122 C106        13.3330     3.4798    -1.0529 C.ar      1  LGD        -0.1298
   123 C107        14.6294     1.3472    -0.9239 C.ar      1  LGD        -0.1298
   124 C108         7.0081   -34.1567     0.0598 C.ar      1  LGD        -0.1298
   125 C109         5.7368   -32.0055     0.0867 C.ar      1  LGD        -0.1298
   126 C110        -6.0657   -20.2193    -0.9531 C.ar      1  LGD        -0.1298
   127 C111        -8.3169   -19.1324    -0.9973 C.ar      1  LGD        -0.1298
   128 C112         0.9559    -1.2317    -0.5379 C.ar      1  LGD        -0.1298
   129 C113        19.4122   -29.5527    -0.1625 C.ar      1  LGD        -0.1298
   130 C114        28.9084   -18.8675    -0.0200 C.ar      1  LGD        -0.1298
   131 C115        26.7353   -20.0950    -0.1656 C.ar      1  LGD        -0.1298
   132 C116        18.1585   -31.7143    -0.1649 C.ar      1  LGD        -0.1298
   133 C117         2.1590     0.9563    -0.6457 C.ar      1  LGD        -0.1298
   134 C118        28.2501   -13.5721    -2.4218 C.ar      1  LGD        -0.1298
   135 C119        26.2841   -12.8882    -3.8073 C.ar      1  LGD        -0.1298
   136 C120        -8.2123    -8.6186    -0.8590 C.ar      1  LGD        -0.1298
   137 C121        -7.5574   -20.2999    -1.0130 C.ar      1  LGD        -0.1299
   138 C122         0.9523     0.2605    -0.6059 C.ar      1  LGD        -0.1299
   139 C123        19.3811   -31.0462    -0.1725 C.ar      1  LGD        -0.1299
   140 C124        -7.3938    -7.3713    -0.7861 C.ar      1  LGD        -0.1299
   141 C125        27.4633   -13.6221    -3.6911 C.ar      1  LGD        -0.1299
   142 C126        14.6288     2.7374    -1.0196 C.ar      1  LGD        -0.1299
   143 C127         5.7210   -33.3988     0.0822 C.ar      1  LGD        -0.1299
   144 C128        28.1277   -20.1374    -0.1188 C.ar      1  LGD        -0.1299
   145 H1           9.3672   -14.5098    -0.4338 H         1  LGD         0.2932
   146 H2          11.1971   -16.2467    -0.4515 H         1  LGD         0.2932
   147 H3           7.6700   -19.8739    -1.3486 H         1  LGD         0.1557
   148 H4          14.6245   -12.8306     1.5378 H         1  LGD         0.1557
   149 H5          12.7437   -19.8665     1.0854 H         1  LGD         0.1642
   150 H6          14.6545   -17.9424     1.2786 H         1  LGD         0.1642
   151 H7           7.6145   -11.0526     1.4306 H         1  LGD         0.1642
   152 H8           5.7490   -12.9140     1.2688 H         1  LGD         0.1718
   153 H9           5.7894   -18.0285    -1.3663 H         1  LGD         0.1557
   154 H10         12.7454   -10.9948     1.5405 H         1  LGD         0.1557
   155 H11          8.2886     0.0589    -0.7383 H         1  LGD         0.1413
   156 H12         -5.2428   -13.8742    -0.7222 H         1  LGD         0.1413
   157 H13         12.0926   -30.7482    -0.1004 H         1  LGD         0.1413
   158 H14         25.7549   -13.6826     0.5718 H         1  LGD         0.1413
   159 H15          5.1648   -13.3968    -1.1920 H         1  LGD         0.1467
   160 H16          4.6894   -17.3563     0.6322 H         1  LGD         0.1467
   161 H17         12.3988    -9.8987    -0.2978 H         1  LGD         0.1467
   162 H18          8.4234   -20.7886     0.8191 H         1  LGD         0.1467
   163 H19         12.2356   -20.5527    -1.3366 H         1  LGD         0.1467
   164 H20          8.0676   -10.2649    -0.6651 H         1  LGD         0.1467
   165 H21         15.7463   -17.4310    -0.4447 H         1  LGD         0.1467
   166 H22         15.5278   -13.0850    -0.5361 H         1  LGD         0.1467
   167 H23          6.4465    -3.8847    -0.5157 H         1  LGD         0.1483
   168 H24         21.9522   -11.7363    -0.2645 H         1  LGD         0.1483
   169 H25         -1.5006   -16.0997    -0.4043 H         1  LGD         0.1483
   170 H26         13.9345   -26.7947    -0.0271 H         1  LGD         0.1483
   171 H27         -1.4596   -11.7256    -0.4660 H         1  LGD         0.1483
   172 H28         22.1113   -16.0737     0.2830 H         1  LGD         0.1483
   173 H29          9.5996   -27.1576     0.1935 H         1  LGD         0.1483
   174 H30         10.7852    -3.5426    -0.5436 H         1  LGD         0.1483
   175 H31          0.4780   -13.7946     0.7638 H         1  LGD         0.0867
   176 H32          0.6038   -13.0816    -0.8546 H         1  LGD         0.0867
   177 H33          7.9508    -5.7604    -1.1586 H         1  LGD         0.0867
   178 H34          8.3888    -5.6931     0.5606 H         1  LGD         0.0867
   179 H35         12.5281   -24.8680    -0.2641 H         1  LGD         0.0867
   180 H36         11.6179   -25.0166     1.2502 H         1  LGD         0.0867
   181 H37         20.0396   -13.0976    -0.8153 H         1  LGD         0.0867
   182 H38         19.9205   -13.5401     0.9009 H         1  LGD         0.0867
   183 H39         -5.8436   -15.8180    -1.7232 H         1  LGD         0.0848
   184 H40         -6.0463   -15.8082     0.0439 H         1  LGD         0.0848
   185 H41         10.1708   -31.6086     0.8888 H         1  LGD         0.0888
   186 H42         10.1182   -31.5757    -0.8884 H         1  LGD         0.0888
   187 H43         10.2313     0.9644     0.0413 H         1  LGD         0.0888
   188 H44         10.2239     0.8172    -1.7304 H         1  LGD         0.0888
   189 H45         -5.8625   -11.8735     0.1738 H         1  LGD         0.0888
   190 H46         -5.7882   -11.8760    -1.6023 H         1  LGD         0.0888
   191 H47          4.7921    -2.5382     0.4115 H         1  LGD         0.0888
   192 H48          4.7205    -2.7055    -1.3574 H         1  LGD         0.0888
   193 H49         26.5193   -11.5841     0.6398 H         1  LGD         0.0888
   194 H50         26.2885   -10.1846    -0.4081 H         1  LGD         0.0888
   195 H51         15.6399   -28.1056     0.8041 H         1  LGD         0.0888
   196 H52         15.6381   -28.0405    -0.9734 H         1  LGD         0.0888
   197 H53         26.6744   -15.5727     0.6160 H         1  LGD         0.0888
   198 H54         26.0439   -15.8490    -1.0221 H         1  LGD         0.0888
   199 H55          8.5198   -23.3346     0.6354 H         1  LGD         0.1437
   200 H56         12.2322    -7.5019    -0.5589 H         1  LGD         0.1437
   201 H57          7.8829    -7.8163    -0.8608 H         1  LGD         0.1437
   202 H58          2.2574   -17.2167     0.3312 H         1  LGD         0.1437
   203 H59          2.6590   -13.2582    -1.4896 H         1  LGD         0.1437
   204 H60         17.9074   -12.9289    -0.6416 H         1  LGD         0.1437
   205 H61         18.2521   -17.2775    -0.4678 H         1  LGD         0.1437
   206 H62         12.3229   -22.9932    -1.4990 H         1  LGD         0.1437
   207 H63         13.3616    -0.4801    -0.7826 H         1  LGD         0.1392
   208 H64         11.1952     3.3246    -1.0129 H         1  LGD         0.1392
   209 H65          4.3800     0.7728    -0.6504 H         1  LGD         0.1392
   210 H66         15.9438   -31.4807    -0.1361 H         1  LGD         0.1392
   211 H67         18.2499   -27.7512    -0.1379 H         1  LGD         0.1392
   212 H68          2.1607    -3.0037    -0.4669 H         1  LGD         0.1392
   213 H69         -8.2365   -16.9021    -0.9123 H         1  LGD         0.1392
   214 H70         -4.3544   -18.9356    -0.8411 H         1  LGD         0.1392
   215 H71          7.0251   -30.1881     0.0697 H         1  LGD         0.1392
   216 H72          9.1477   -34.0245     0.0268 H         1  LGD         0.1392
   217 H73         -4.2575    -8.8368    -0.5829 H         1  LGD         0.1392
   218 H74         -8.1842   -10.7618    -0.8842 H         1  LGD         0.1392
   219 H75         24.9422   -18.7632    -0.1757 H         1  LGD         0.1392
   220 H76         28.8134   -16.7291     0.0985 H         1  LGD         0.1392
   221 H77         24.8803   -11.5018    -2.7584 H         1  LGD         0.1392
   222 H78         28.3715   -12.7698    -0.4370 H         1  LGD         0.1392
   223 H79         -5.4141    -6.5547    -0.6371 H         1  LGD         0.1353
   224 H80         13.3295     4.5574    -1.1274 H         1  LGD         0.1353
   225 H81         15.5658     0.8096    -0.8998 H         1  LGD         0.1353
   226 H82          6.9986   -35.2368     0.0560 H         1  LGD         0.1353
   227 H83          4.8069   -31.4563     0.1028 H         1  LGD         0.1353
   228 H84         -5.4776   -21.1249    -0.9663 H         1  LGD         0.1353
   229 H85         -9.3949   -19.1866    -1.0418 H         1  LGD         0.1353
   230 H86          0.0220    -1.7736    -0.5055 H         1  LGD         0.1353
   231 H87         20.3587   -29.0323    -0.1677 H         1  LGD         0.1353
   232 H88         29.9878   -18.8973     0.0101 H         1  LGD         0.1353
   233 H89         26.1710   -21.0129    -0.2386 H         1  LGD         0.1353
   234 H90         18.1345   -32.7942    -0.1719 H         1  LGD         0.1353
   235 H91          2.1574     2.0352    -0.6948 H         1  LGD         0.1353
   236 H92         29.1691   -14.1328    -2.3337 H         1  LGD         0.1353
   237 H93         25.7142   -12.9246    -4.7240 H         1  LGD         0.1353
   238 H94         -9.2882    -8.5560    -0.9326 H         1  LGD         0.1353
   239 H95         -8.0460   -21.2615    -1.0695 H         1  LGD         0.1340
   240 H96          0.0157     0.7982    -0.6238 H         1  LGD         0.1340
   241 H97         20.3047   -31.6061    -0.1854 H         1  LGD         0.1340
   242 H98         -7.8780    -6.4060    -0.8078 H         1  LGD         0.1340
   243 H99         27.8098   -14.2246    -4.5179 H         1  LGD         0.1340
   244 H100        15.5626     3.2779    -1.0696 H         1  LGD         0.1340
   245 H101         4.7808   -33.9303     0.0948 H         1  LGD         0.1340
   246 H102        28.6430   -21.0860    -0.1559 H         1  LGD         0.1340

@<TRIPOS>BOND
     1     2    12   2
     2     3    11   1
     3     4    16   1
     4     5    15   1
     5     6    13   2
     6     1     7   1
     7     2     8   1
     8     8     9   2
     9     7    10   2
    10     1    11   2
    11     4    12   1
    12    10    13   1
    13     5    14   2
    14     6    15   1
    15     3    16   1
    16     1    17   1
    17     2    18   1
    18     3    19   2
    19    19    20   1
    20    21    22   2
    21     6    22   1
    22    17    23   2
    23    18    24   2
    24    11    25   1
    25    12    26   1
    26    14    27   1
    27    13    28   1
    28    29    35  ar
    29    30    33  ar
    30    31    37  ar
    31    32    39  ar
    32    33    69  ar
    33    34    67  ar
    34    35    72  ar
    35    36    68  ar
    36    37    71  ar
    37    38    65  ar
    38    39    70  ar
    39    40    66  ar
    40    41    80   1
    41    42    77   1
    42    43    78   1
    43    44    79   1
    44    28    45  ar
    45    28    46  ar
    46    27    47  ar
    47    25    48  ar
    48    25    49  ar
    49    27    50  ar
    50    26    51  ar
    51    26    52  ar
    52    36    53   1
    53    37    54   1
    54    38    55   1
    55    35    56   1
    56    34    57   1
    57    33    58   1
    58    40    59   1
    59    39    60   1
    60    61    74   1
    61    62    75   1
    62    63    73   1
    63    64    76   1
    64    43    65  ar
    65    41    66  ar
    66    42    67  ar
    67    44    68  ar
    68    42    69  ar
    69    41    70  ar
    70    44    71  ar
    71    43    72  ar
    72    73    91  ar
    73    74    96  ar
    74    75    94  ar
    75    76    92  ar
    76    64    77   1
    77    63    78   1
    78    61    79   1
    79    62    80   1
    80    57    81   1
    81    54    82   1
    82    56    83   1
    83    58    84   1
    84    55    85   1
    85    59    86   1
    86    53    87   1
    87    60    88   1
    88    48    89  ar
    89    47    90  ar
    90    50    91  ar
    91    46    92  ar
    92    45    93  ar
    93    52    94  ar
    94    51    95  ar
    95    49    96  ar
    96    81    97   1
    97    85    98   1
    98    87    99   1
    99    83   100   1
   100    86   101   1
   101    84   102   1
   102    82   103   1
   103    88   104   1
   104   100   105  ar
   105   100   106  ar
   106    98   107  ar
   107    99   108  ar
   108    99   109  ar
   109    98   110  ar
   110    97   111  ar
   111    97   112  ar
   112   103   113  ar
   113   103   114  ar
   114   102   115  ar
   115   102   116  ar
   116   104   117  ar
   117   104   118  ar
   118   101   119  ar
   119   101   120  ar
   120   115   121  ar
   121   106   122  ar
   122   105   123  ar
   123   114   124  ar
   124   113   125  ar
   125   112   126  ar
   126   111   127  ar
   127   110   128  ar
   128   109   129  ar
   129   118   130  ar
   130   117   131  ar
   131   108   132  ar
   132   107   133  ar
   133   120   134  ar
   134   119   135  ar
   135   116   136  ar
   136   126   137  ar
   137   128   138  ar
   138   129   139  ar
   139   136   140  ar
   140   134   141  ar
   141   122   142  ar
   142   124   143  ar
   143   130   144  ar
   144    10    23   1
   145    74    89  ar
   146     4    20   2
   147    76    93  ar
   148     5    21   1
   149     9    14   1
   150    75    95  ar
   151     9    24   1
   152    31    36  ar
   153    73    90  ar
   154    30    34  ar
   155    32    40  ar
   156   125   143  ar
   157   132   139  ar
   158    29    38  ar
   159   121   140  ar
   160   127   137  ar
   161   131   144  ar
   162   135   141  ar
   163   123   142  ar
   164   133   138  ar
   165    15   145   1
   166    16   146   1
   167    17   147   1
   168    18   148   1
   169    19   149   1
   170    20   150   1
   171    21   151   1
   172    22   152   1
   173    23   153   1
   174    24   154   1
   175    29   155   1
   176    30   156   1
   177    31   157   1
   178    32   158   1
   179    45   159   1
   180    46   160   1
   181    47   161   1
   182    48   162   1
   183    49   163   1
   184    50   164   1
   185    51   165   1
   186    52   166   1
   187    65   167   1
   188    66   168   1
   189    67   169   1
   190    68   170   1
   191    69   171   1
   192    70   172   1
   193    71   173   1
   194    72   174   1
   195    77   175   1
   196    77   176   1
   197    78   177   1
   198    78   178   1
   199    79   179   1
   200    79   180   1
   201    80   181   1
   202    80   182   1
   203    81   183   1
   204    81   184   1
   205    82   185   1
   206    82   186   1
   207    83   187   1
   208    83   188   1
   209    84   189   1
   210    84   190   1
   211    85   191   1
   212    85   192   1
   213    86   193   1
   214    86   194   1
   215    87   195   1
   216    87   196   1
   217    88   197   1
   218    88   198   1
   219    89   199   1
   220    90   200   1
   221    91   201   1
   222    92   202   1
   223    93   203   1
   224    94   204   1
   225    95   205   1
   226    96   206   1
   227   105   207   1
   228   106   208   1
   229   107   209   1
   230   108   210   1
   231   109   211   1
   232   110   212   1
   233   111   213   1
   234   112   214   1
   235   113   215   1
   236   114   216   1
   237   115   217   1
   238   116   218   1
   239   117   219   1
   240   118   220   1
   241   119   221   1
   242   120   222   1
   243   121   223   1
   244   122   224   1
   245   123   225   1
   246   124   226   1
   247   125   227   1
   248   126   228   1
   249   127   229   1
   250   128   230   1
   251   129   231   1
   252   130   232   1
   253   131   233   1
   254   132   234   1
   255   133   235   1
   256   134   236   1
   257   135   237   1
   258   136   238   1
   259   137   239   1
   260   138   240   1
   261   139   241   1
   262   140   242   1
   263   141   243   1
   264   142   244   1
   265   143   245   1
   266   144   246   1

